System Matpower Format/npcc_ny_lite_s10a_perform_control_mapped_2019_pf_solution.m
function mpc = npcc_ny_lite_s10a_perform_control_mapped_2019_pf_solution
%NPCC_NY_LITE_S10A_PERFORM_CONTROL_MAPPED_2019_PF_SOLUTION

%% MATPOWER Case Format : Version 2
mpc.version = '2';

%%-----  Power Flow Data  -----%%
%% system MVA base
mpc.baseMVA = 100;

%% bus data
%	bus_i	type	Pd	Qd	Gs	Bs	area	Vm	Va	baseKV	zone	Vmax	Vmin
mpc.bus = [
	37	3	0	0	0	0	2	1.01954348	22.122875	345	70	1.1	0.9;
	38	2	0	0	0	0	2	1.02	22.5979813	345	70	1.1	0.9;
	39	2	148.513342	0	0	0	2	1.01927722	18.3738681	345	71	1.1	0.9;
	40	1	0	0	0	0	2	1.01859841	23.5611674	230	70	1.1	0.9;
	41	2	594.424426	0	0	0	2	1.02	22.5925396	115	70	1.1	0.9;
	42	2	150.304462	0	0	0	2	1.02	24.3636033	115	70	1.1	0.9;
	43	1	0	0	0	0	2	1.01972085	30.7470796	345	69	1.1	0.9;
	44	2	0	0	0	0	2	1.02	29.3340668	230	69	1.1	0.9;
	45	1	451.415585	0	0	0	2	1.01854309	24.7880823	115	69	1.1	0.9;
	46	1	6.21258454	0	0	0	2	1.02365433	27.7198405	115	68	1.1	0.9;
	47	2	142.619332	0	0	0	2	1.02	30.1190247	230	68	1.1	0.9;
	48	1	0	0	0	0	2	1.02480663	29.768746	230	68	1.1	0.9;
	49	1	56.1833732	0	0	0	2	1.01770627	25.5570462	115	68	1.1	0.9;
	50	2	0	0	0	0	2	1.02	35.0340924	345	67	1.1	0.9;
	51	2	437.960007	0	0	0	2	1.02	30.5508069	115	67	1.1	0.9;
	52	1	0	0	0	0	2	1.02279656	33.3300213	345	66	1.1	0.9;
	53	2	632.127428	0	0	0	2	1.01948435	27.4375664	115	66	1.1	0.9;
	54	2	6.61668164	0	0	0	2	1.02	35.1233906	230	65	1.1	0.9;
	55	2	310.653203	0	0	0	2	1.02	33.610371	230	65	1.1	0.9;
	56	1	65.7758231	0	0	0	2	1.02121308	35.9287204	230	65	1.1	0.9;
	57	2	91.7802183	0	0	0	2	1.02	33.4357664	115	65	1.1	0.9;
	58	1	32.1230764	0	0	0	2	1.01931611	33.8462328	230	65	1.1	0.9;
	59	1	269.604391	0	0	0	2	1.01844135	32.7720238	115	65	1.1	0.9;
	60	2	0	0	0	0	2	1.02	35.0799387	230	65	1.1	0.9;
	61	2	90.6329654	0	0	0	2	1.02	35.1392101	115	65	1.1	0.9;
	62	1	0	0	0	0	2	1.02158354	33.1106539	230	65	1.1	0.9;
	63	1	0	0	0	0	2	1.02213173	27.5421454	230	67	1.1	0.9;
	64	1	85.6748032	0	0	0	2	1.02256635	25.52336	115	67	1.1	0.9;
	65	2	54.5203291	0	0	0	2	1.02	26.1382642	115	67	1.1	0.9;
	66	1	0	0	0	0	2	1.03037023	25.009608	345	67	1.1	0.9;
	67	1	0	0	0	0	2	1.02672507	25.3513239	230	67	1.1	0.9;
	68	2	126.415269	0	0	0	2	1.02	24.8542752	115	67	1.1	0.9;
	69	1	0	0	0	0	2	1.03045295	24.6037973	345	67	1.1	0.9;
	70	1	0	0	0	0	2	1.02310311	25.5169253	230	67	1.1	0.9;
	71	1	222.275188	0	0	0	2	1.01700728	25.6295822	115	67	1.1	0.9;
	72	1	0	0	0	0	2	1.02088889	27.8487461	115	67	1.1	0.9;
	73	2	371.283356	0	0	0	3	1.02011376	11.3251608	345	71	1.1	0.9;
	74	1	477.277556	0	0	0	3	1.0207975	7.12878276	345	73	1.1	0.9;
	75	1	0	0	0	0	3	1.01900478	5.81348869	138	71	1.1	0.9;
	76	2	222.770013	0	0	0	3	1.01900478	5.81348869	345	71	1.1	0.9;
	77	1	0	0	0	0	3	1.02332959	6.56898833	345	73	1.1	0.9;
	78	1	217.029819	0	0	0	3	1.01950774	6.16142784	345	72	1.1	0.9;
	79	2	1714.66454	0	0	0	3	1.02	7.54661619	22	74	1.1	0.9;
	80	2	1827.66093	-5.64141434	0	0	3	1.02	0.358525926	138	75	1.1	0.9;
	81	2	381.036564	0	0	0	3	1.01734812	6.0947243	345	74	1.1	0.9;
	82	2	1714.66454	0	0	0	3	1.02	0.599615901	22	74	1.1	0.9;
	9001	1	0	0	0	0	3	1.01789046	14.2599939	345	71	1.1	0.9;
	9002	1	0	0	0	0	3	1.02091818	8.43704069	345	73	1.1	0.9;
	9003	2	0	-0	0	0	3	1.01541638	10.3121208	345	75	1.1	0.9;
];

%% generator data
%	bus	Pg	Qg	Qmax	Qmin	Vg	mBase	status	Pmax	Pmin	Pc1	Pc2	Qc1min	Qc1max	Qc2min	Qc2max	ramp_agc	ramp_10	ramp_30	ramp_q	apf
mpc.gen = [
	37	260.786832	-80.1282428	188.065437	-157.754725	1.01954348	100	1	264.619649	92.8162658	0	0	0	0	0	0	0	0	0	0	0;
	43	124.014967	222.363919	222.363919	-175.205793	1.02	100	1	318.180159	25.6461184	0	0	0	0	0	0	0	0	0	0	0;
	9003	1079.64596	-397.976506	835.867729	-700.987805	1.01541638	100	1	1191.61159	526.934441	0	0	0	0	0	0	0	0	0	0	0;
	80	429.671738	219.008045	279.948784	-236.888183	1.02	100	1	430.60601	44.1215674	0	0	0	0	0	0	0	0	0	0	0;
	9003	188.41299	98.0243734	98.0243734	98.0243734	1.01541638	100	1	188.41299	188.41299	0	0	0	0	0	0	0	0	0	0	0;
	44	355.109801	-53.4803856	291.564537	-232.256516	1.02	100	1	415.423216	26.7436698	0	0	0	0	0	0	0	0	0	0	0;
	72	70.0053134	-38.8533206	49.170304	-38.8533206	1.02	100	1	70.6091419	6.0731179	0	0	0	0	0	0	0	0	0	0	0;
	68	98.5941555	-19.2124279	70.5176793	-61.4336119	1.02	100	1	99.4015744	20.2315313	0	0	0	0	0	0	0	0	0	0	0;
	79	2129.96913	-4.95233123	1530.54461	-1285.2876	1.02	100	1	2133.3473	664.091784	0	0	0	0	0	0	0	0	0	0	0;
	65	40.7156092	-1.36779117	26.6339147	-22.5363893	1.02	100	1	40.9752533	11.7072152	0	0	0	0	0	0	0	0	0	0	0;
	56	127.781569	-80.7944191	93.383334	-80.7944191	1.02	100	1	128.596442	52.2068629	0	0	0	0	0	0	0	0	0	0	0;
	50	1109.1943	-146.339583	800.636328	-675.378271	1.02	100	1	1113.86836	702.249989	0	0	0	0	0	0	0	0	0	0	0;
	47	189.410926	-43.4981509	133.096403	-104.999087	1.02	100	1	190.754438	0.548775714	0	0	0	0	0	0	0	0	0	0	0;
	57	69.6707676	-2.50266078	60.7220328	-56.6738973	1.02	100	1	80.9627104	38.0484495	0	0	0	0	0	0	0	0	0	0	0;
	61	117.457259	-10.8830149	84.4199974	-69.9945131	1.02	100	1	118.206289	23.04858	0	0	0	0	0	0	0	0	0	0	0;
	60	63.0001314	-17.8971017	44.3776628	-34.8655504	1.02	100	1	63.4018875	3.29265428	0	0	0	0	0	0	0	0	0	0	0;
	42	498.479473	-68.4745163	424.423137	-396.128262	1.02	100	1	565.897516	359.045657	0	0	0	0	0	0	0	0	0	0	0;
	81	498.404608	-268.951241	403.441613	-328.548362	1.01734812	100	1	568.82432	256.717279	0	0	0	0	0	0	0	0	0	0	0;
	53	263.344445	7.37851628	186.931301	-149.52309	1.01948435	100	1	265.241595	182.230122	0	0	0	0	0	0	0	0	0	0	0;
	71	17.3404854	12.2194059	12.2194059	-9.58528247	1.02	100	1	17.4510677	15.36572	0	0	0	0	0	0	0	0	0	0	0;
	56	34.317506	0	0	0	1.02	100	1	34.5362849	0	0	0	0	0	0	0	0	0	0	0	0;
	61	0	-2.46157344	24.1827165	-18.9876397	1.02	100	1	0	0	0	0	0	0	0	0	0	0	0	0	0;
	53	0	8.53050649	18.2925238	0	1.01948435	100	1	0	0	0	0	0	0	0	0	0	0	0	0	0;
	51	321.108025	-79.9084123	226.205349	-177.730161	1.02	100	1	323.155726	242.193015	0	0	0	0	0	0	0	0	0	0	0;
	47	0	9.45005159	36.5850476	0	1.02	100	1	0	0	0	0	0	0	0	0	0	0	0	0	0;
	37	0	12.318405	54.8775714	0	1.01954348	100	1	0	0	0	0	0	0	0	0	0	0	0	0	0;
	41	123.779468	81.348126	92.962606	-86.7650989	1.02	100	1	123.950141	36.9508981	0	0	0	0	0	0	0	0	0	0	0;
	39	0	39.8453264	91.462619	0	1.01927722	100	1	0	0	0	0	0	0	0	0	0	0	0	0	0;
	76	264.493436	-89.6375285	185.413021	-145.608489	1.01900478	100	1	264.802575	44.6337581	0	0	0	0	0	0	0	0	0	0	0;
	73	405.996053	47.7705154	506.666324	-447.142452	1.02011376	100	1	736.091158	243.656417	0	0	0	0	0	0	0	0	0	0	0;
	73	0	5.69498255	10.9755143	0	1.02011376	100	1	0	0	0	0	0	0	0	0	0	0	0	0	0;
	78	21.7028729	15.2925499	15.2925499	-11.9998956	1.02	100	1	21.8412734	2.56095333	0	0	0	0	0	0	0	0	0	0	0;
	81	0	16.3827369	201.217762	0	1.01734812	100	1	0	0	0	0	0	0	0	0	0	0	0	0	0;
	82	386.784406	136.86966	319.497221	-251.010012	1.02	100	1	456.398469	181.278911	0	0	0	0	0	0	0	0	0	0	0;
	81	211.971202	214.685228	214.685228	214.685228	1.01734812	100	1	211.971202	211.971202	0	0	0	0	0	0	0	0	0	0	0;
	9003	0	271.349588	2270.1022	-219.510286	1.01541638	100	1	0	0	0	0	0	0	0	0	0	0	0	0	0;
	76	-234.421616	33.8613245	33.8613245	33.8613245	1.01900478	100	1	-234.421616	-234.421616	0	0	0	0	0	0	0	0	0	0	0;
	48	38.7161815	-21.4388379	27.2924455	-21.4388379	1.02	100	1	38.9630757	0	0	0	0	0	0	0	0	0	0	0	0;
	37	-305.850986	21.2058078	21.2058078	21.2058078	1.01954348	100	1	-305.850986	-305.850986	0	0	0	0	0	0	0	0	0	0	0;
	39	462.627537	-30.6314156	346.240891	-321.5533	1.01927722	100	1	462.727682	313.168008	0	0	0	0	0	0	0	0	0	0	0;
	76	0	6.18600365	36.5850476	0	1.01900478	100	1	0	0	0	0	0	0	0	0	0	0	0	0	0;
	38	358.613965	-104.159076	256.095333	-201.217762	1.02	100	1	365.850476	1.4634019	0	0	0	0	0	0	0	0	0	0	0;
	43	365.40683	-252.576259	-252.576259	-252.576259	1.02	100	1	1365.40683	-634.59317	0	0	0	0	0	0	0	0	0	0	0;
	56	265.241595	-25.5941253	-25.5941253	-25.5941253	1.02	100	1	265.241595	265.241595	0	0	0	0	0	0	0	0	0	0	0;
	54	330.013474	46.7491803	454.715557	-357.143235	1.02	100	1	649.42118	5.48775714	0	0	0	0	0	0	0	0	0	0	0;
	55	223.791052	-40.3307538	229.022398	-179.852094	1.02	100	1	327.070326	3.65850476	0	0	0	0	0	0	0	0	0	0	0;
];

%% branch data
%	fbus	tbus	r	x	b	rateA	rateB	rateC	ratio	angle	status	angmin	angmax	Pf	Qf	Pt	Qt
mpc.branch = [
	37	38	0.0016	0.0163	0.25	2500	0	0	0	0	1	-360	360	-52.6546	-10.4609	52.6973	-15.1017;
	37	39	0.0008	0.0074	0.48	2500	0	0	0	0	1	-360	360	911.2225	-89.7377	-904.7998	99.2661;
	37	40	0.0009	0.0315	0.06	2500	0	0	0	0	1	-360	360	-82.5673	3.3382	82.6267	-7.4907;
	37	43	0.0013	0.0188	1.31	2500	0	0	0	0	1	-360	360	-821.0648	50.2563	829.6711	-61.9901;
	38	69	0.0043	0.0485	0.79	2500	0	0	0	0	1	-360	360	-77.0773	-54.9178	77.3308	-25.2619;
	39	73	0.0019	0.0183	0.29	2500	0	0	0	0	1	-360	360	693.7339	-48.8085	-684.9116	103.6274;
	39	73	0.0019	0.0183	0.29	2500	0	0	0	0	1	-360	360	693.7339	-48.8085	-684.9116	103.6274;
	40	44	0.008	0.053	0.4	2500	0	0	0	0	1	-360	360	-191.7182	15.4360	194.6532	-37.5502;
	41	42	0.0018	0.0089	0.07	2500	0	0	0	0	1	-360	360	-346.0050	71.9214	348.1750	-68.4745;
	41	45	0.0776	0.2241	0.13	2500	0	0	0	0	1	-360	360	-15.5485	-0.3751	15.7592	-12.5222;
	43	44	0	0.011	0	2500	0	0	0	0	1	-360	360	233.1676	0.2875	-233.1676	5.4638;
	43	50	0.0025	0.0268	0.4	2500	0	0	0	0	1	-360	360	-286.7085	15.7451	288.7169	-35.8194;
	43	50	0.0025	0.0268	0.4	2500	0	0	0	0	1	-360	360	-286.7085	15.7451	288.7169	-35.8194;
	44	45	0	0.0205	0	2500	0	0	0	0	1	-360	360	401.6754	23.1923	-401.6754	8.7047;
	44	48	0.015	0.105	0.79	2500	0	0	0	0	1	-360	360	-8.0512	-44.5863	8.0623	-37.9158;
	45	46	0.1235	0.3548	0.16	2500	0	0	0	0	1	-360	360	-13.7421	-4.5987	13.9832	-11.3910;
	45	51	0.0605	0.1896	0.08	2500	0	0	0	0	1	-360	360	-49.3595	13.5871	50.9638	-16.8708;
	45	71	0.1751	0.5575	0.12	2500	0	0	0	0	1	-360	360	-2.3979	-5.1708	2.4094	-7.2227;
	46	47	0.0632	0.121	0.05	2500	0	0	0	0	1	-360	360	-26.8013	15.2270	27.4266	-19.2504;
	46	49	0.164	0.578	0.06	2500	0	0	0	0	1	-360	360	6.6055	-3.8360	-6.5365	-2.1714;
	47	48	0	0.033	0	2500	0	0	0	0	1	-360	360	19.3650	-14.7977	-19.3650	14.9861;
	50	51	0	0.0207	0	2500	0	0	0	0	1	-360	360	392.8805	15.3789	-392.8805	15.3789;
	50	52	0.002	0.022	1.28	2500	0	0	0	0	1	-360	360	138.8800	-90.0797	-138.4986	-39.2619;
	51	53	0.0844	0.2161	0.22	2500	0	0	0	0	1	-360	360	22.9981	-19.4730	-22.5168	-2.1718;
	51	72	0.0051	0.0232	0.3	2500	0	0	0	0	1	-360	360	202.0666	-58.9436	-199.9730	37.2281;
	52	53	0.0014	0.0388	0	2500	0	0	0	0	1	-360	360	276.3639	12.9588	-275.3395	15.4315;
	53	55	0.03	0.107	0.3	789.941803	0	0	0	0	1	-360	360	-95.5471	16.3420	98.4765	-37.0900;
	53	65	0.035	0.08	0.05	2500	0	0	0	0	1	-360	360	24.6204	-13.6927	-24.3748	9.0546;
	54	56	0.01	0.008	0.07	789.941803	0	0	0	0	1	-360	360	-78.3340	80.0955	79.5978	-86.3760;
	54	62	0.008	0.069	0.13	789.941803	0	0	0	0	1	-360	360	52.1748	-14.2210	-51.9612	2.5171;
	55	57	0.0074	0.04	0.02	789.941803	0	0	0	0	1	-360	360	7.6662	-2.4466	-7.6619	0.3891;
	55	59	0.016	0.0817	0.04	789.941803	0	0	0	0	1	-360	360	18.3093	-3.5844	-18.2574	-0.3058;
	56	58	0.002	0.015	0.11	2500	0	0	0	0	1	-360	360	250.0603	-21.5792	-248.8563	19.1589;
	57	59	0.014	0.068	0.03	2500	0	0	0	0	1	-360	360	17.4592	-2.7147	-17.4180	-0.2017;
	58	60	0.0035	0.0344	0.27	2500	0	0	0	0	1	-360	360	-64.5406	-8.7858	64.6818	-17.8980;
	58	62	0.002	0.018	0.03	2500	0	0	0	0	1	-360	360	72.0059	-21.9226	-71.8981	19.7687;
	59	61	0.068	0.143	0.06	2500	0	0	0	0	1	-360	360	-24.6611	8.1251	25.1426	-13.3455;
	62	63	0.0129	0.0803	0.15	2500	0	0	0	0	1	-360	360	123.8593	-22.2858	-121.9372	18.5876;
	63	64	0	0.046	0	2500	0	0	0	0	1	-360	360	80.0420	0.4445	-80.0420	2.3764;
	63	67	0.012	0.093	0.18	2500	0	0	0	0	1	-360	360	41.8952	-19.0322	-41.6829	1.7869;
	64	65	0.035	0.08	0.05	2500	0	0	0	0	1	-360	360	-10.5119	5.3403	10.5701	-10.4224;
	64	68	0.0988	0.231	0.13	2500	0	0	0	0	1	-360	360	4.8792	-7.7167	-4.8559	-5.7881;
	66	67	0	0.0231	0	2500	0	0	0	0	1	-360	360	-27.3134	16.3406	27.3134	-16.1202;
	66	69	0.0018	0.0274	0.27	2500	0	0	0	0	1	-360	360	27.3134	-16.3406	-27.3007	-12.1330;
	67	68	0	0.049	0	2500	0	0	0	0	1	-360	360	18.5408	14.1718	-18.5408	-13.9187;
	67	70	0.007	0.0619	0.12	2500	0	0	0	0	1	-360	360	-4.1713	0.1615	4.1752	-12.7320;
	68	71	0.1203	0.2048	0.07	2500	0	0	0	0	1	-360	360	-4.4244	0.4944	4.4668	-7.6837;
	69	71	0	0.0375	0	2500	0	0	0	0	1	-360	360	-50.0301	37.3949	50.0301	-36.0171;
	70	71	0	0.049	0	2500	0	0	0	0	1	-360	360	-4.1752	12.7320	4.1752	-12.6480;
	71	72	0.0053	0.0135	0.1	2500	0	0	0	0	1	-360	360	-266.0163	75.7908	269.9784	-76.0814;
	73	74	0.0022	0.0196	0.34	2500	0	0	0	0	1	-360	360	385.1199	-50.2338	-381.9619	42.9632;
	73	74	0.0022	0.0196	0.34	2500	0	0	0	0	1	-360	360	385.1199	-50.2338	-381.9619	42.9632;
	74	77	0.0003	0.0043	0.08	2500	0	0	0	0	1	-360	360	232.1055	-79.3123	-231.9341	73.4115;
	74	78	0.0005	0.0045	0.32	2500	0	0	0	0	1	-360	360	389.2567	-27.3696	-388.5291	0.6152;
	74	78	0.0005	0.0045	0.32	2500	0	0	0	0	1	-360	360	389.2567	-27.3696	-388.5291	0.6152;
	76	77	0.003	0.0068	1.37	2500	0	0	0	0	1	-360	360	-192.6982	-49.5902	193.7844	-90.8095;
	78	79	0.0003	0.0153	0	2500	0	0	0	0	1	-360	360	-164.2643	1.9269	164.3422	2.0455;
	78	80	0.0135	0.0582	0.5	2500	0	0	0	0	1	-360	360	173.2558	-57.8793	-169.2249	23.2620;
	78	81	0.0005	0.0276	0	2500	0	0	0	0	1	-360	360	4.5181	7.8981	-4.5177	-7.8761;
	78	82	0.0005	0.0308	0	2500	0	0	0	0	1	-360	360	327.3740	8.9509	-326.8581	22.8312;
	40	41	0	0.0161	0	2500	0	0	1	0	1	-360	360	109.0915	-7.9453	-109.0915	9.8018;
	49	48	0.0156	0.1536	0	2500	0	0	1	0	1	-360	360	-49.6469	2.1714	50.0188	1.4909;
	54	52	0.002	0.0233	0	789.941803	0	0	1	0	1	-360	360	138.2419	-21.9156	-137.8653	26.3031;
	54	55	0	0.013	0	2500	0	0	1	0	1	-360	360	211.3141	2.7903	-211.3141	2.7903;
	56	57	0	0.142	0	2500	0	0	1	0	1	-360	360	31.9068	1.5666	-31.9068	-0.1771;
	58	59	0	0.0093	0	2500	0	0	1	0	1	-360	360	209.2679	11.5495	-209.2679	-7.6177;
	60	61	0	0.064	0	2500	0	0	1	0	1	-360	360	-1.6817	0.0009	1.6817	0.0009;
	75	76	0.0001	0.0074	0	2500	0	0	1	0	1	-360	360	0.0000	0.0000	0.0000	0.0000;
	38	39	0.00131	0.01997	0.51614	1216	2454	1804	0	0	1	-360	360	382.9940	-34.1396	-381.1463	8.6440;
	73	9002	0.000405	0.006185	0.63943	2432	4908	3608	0	0	1	-360	360	845.3225	-80.5030	-842.5328	56.5125;
	9002	74	0.000185	0.002815	0.29107	2432	4908	3608	0	0	1	-360	360	842.5328	-56.5125	-841.2698	45.3969;
	74	78	0.0009	0.015	0	5000	5000	5000	0	0	1	-360	360	117.2973	2.7282	-117.1784	-0.7466;
	77	78	0.0012	0.02	0	5000	5000	5000	0	0	1	-360	360	38.1497	17.3980	-38.1295	-17.0623;
	78	81	0.00072	0.012	0	5000	5000	5000	0	0	1	-360	360	11.1237	17.6864	-11.1206	-17.6360;
	78	79	0.0006	0.01	0	5000	5000	5000	0	0	1	-360	360	-250.5989	13.0562	250.9624	-6.9978;
	78	82	0.0006	0.01	0	5000	5000	5000	0	0	1	-360	360	1006.8759	-16.4750	-1001.0221	114.0385;
	78	9003	0.0012	0.02	0	5000	5000	5000	0	0	1	-360	360	-371.2450	56.7068	372.8733	-29.5683;
	9003	80	0.0012	0.02	0	5000	5000	5000	0	0	1	-360	360	895.1856	0.9657	-885.8591	154.4763;
	81	80	0.0018	0.03	0	5000	5000	5000	0	0	1	-360	360	344.9776	-12.3712	-342.9052	46.9112;
	39	9001	0.0021	0.035	0	5000	5000	5000	0	0	1	-360	360	212.5926	-1.0793	-211.6791	16.3054;
	9001	73	0.0015	0.025	0	5000	5000	5000	0	0	1	-360	360	211.6791	-16.3054	-211.0265	27.1813;
];

%%-----  OPF Data  -----%%
%% generator cost data
%	1	startup	shutdown	n	x1	y1	...	xn	yn
%	2	startup	shutdown	n	c(n-1)	...	c0
mpc.gencost = [
	2	0	0	2	0	0;
	2	0	0	2	0	0;
	2	0	0	2	0	0;
	2	0	0	2	0	0;
	2	0	0	2	0	0;
	2	0	0	2	0	0;
	2	0	0	2	0	0;
	2	0	0	2	0	0;
	2	0	0	2	0	0;
	2	0	0	2	0	0;
	2	0	0	2	0	0;
	2	0	0	2	0	0;
	2	0	0	2	0	0;
	2	0	0	2	0	0;
	2	0	0	2	0	0;
	2	0	0	2	0	0;
	2	0	0	2	0	0;
	2	0	0	2	0	0;
	2	0	0	2	0	0;
	2	0	0	2	0	0;
	2	0	0	2	0	0;
	2	0	0	2	0	0;
	2	0	0	2	0	0;
	2	0	0	2	0	0;
	2	0	0	2	0	0;
	2	0	0	2	0	0;
	2	0	0	2	0	0;
	2	0	0	2	0	0;
	2	0	0	2	0	0;
	2	0	0	2	0	0;
	2	0	0	2	0	0;
	2	0	0	2	0	0;
	2	0	0	2	0	0;
	2	0	0	2	0	0;
	2	0	0	2	0	0;
	2	0	0	2	0	0;
	2	0	0	2	0	0;
	2	0	0	2	0	0;
	2	0	0	2	0	0;
	2	0	0	2	0	0;
	2	0	0	2	0	0;
	2	0	0	2	0	0;
	2	0	0	2	0	0;
	2	0	0	2	0	0;
	2	0	0	2	0	0;
	2	0	0	2	0	0;
];

%% generator unit type (see GENTYPES)
mpc.gentype = {
	'AG';
	'AG';
	'AG';
	'AG';
	'AG';
	'AG';
	'AG';
	'AG';
	'AG';
	'AG';
	'AG';
	'AG';
	'AG';
	'AG';
	'AG';
	'AG';
	'AG';
	'AG';
	'AG';
	'AG';
	'AG';
	'AG';
	'AG';
	'AG';
	'AG';
	'AG';
	'AG';
	'AG';
	'AG';
	'AG';
	'AG';
	'AG';
	'AG';
	'AG';
	'AG';
	'AG';
	'AG';
	'AG';
	'AG';
	'AG';
	'AG';
	'AG';
	'AG';
	'AG';
	'AG';
	'AG';
};

%% generator fuel type (see GENFUELS)
mpc.genfuel = {
	'aggregate_pv_generator';
	'aggregate_pv_generator';
	'aggregate_pv_generator';
	'aggregate_pv_generator';
	'boundary_import_equivalent';
	'aggregate_pv_generator';
	'aggregate_pv_generator';
	'aggregate_pv_generator';
	'aggregate_pv_generator';
	'aggregate_pv_generator';
	'aggregate_pv_generator';
	'aggregate_pv_generator';
	'aggregate_pv_generator';
	'aggregate_pv_generator';
	'aggregate_pv_generator';
	'aggregate_pv_generator';
	'aggregate_pv_generator';
	'aggregate_pv_generator';
	'aggregate_pv_generator';
	'aggregate_pv_generator';
	'aggregate_pv_generator_p_injection';
	'aggregate_pv_generator_remote_q_control';
	'controllable_q_device';
	'aggregate_pv_generator';
	'controllable_q_device';
	'controllable_q_device';
	'aggregate_pv_generator';
	'controllable_q_device';
	'aggregate_pv_generator';
	'aggregate_pv_generator';
	'controllable_q_device';
	'aggregate_pv_generator';
	'controllable_q_device';
	'aggregate_pv_generator';
	'boundary_import_equivalent';
	'controllable_q_device';
	'boundary_import_equivalent';
	'aggregate_pv_generator';
	'boundary_import_equivalent';
	'aggregate_pv_generator';
	'controllable_q_device';
	'aggregate_pv_generator';
	'boundary_import_equivalent';
	'boundary_import_equivalent';
	'aggregate_pv_generator';
	'aggregate_pv_generator';
};

%% bus names
mpc.bus_name = {
	'NEW SEATHED ';
	'GILBOA      ';
	'LEEDS       ';
	'NEW SEATHED ';
	'ROTTERDAM   ';
	'ALBANY      ';
	'EDIC        ';
	'PORTER      ';
	'PORTER      ';
	'COLTON      ';
	'MOSES W     ';
	'MOSES E     ';
	'PLATTSBURGH ';
	'CLAY        ';
	'CLAY        ';
	'ROCHESTER   ';
	'ROCHESTER   ';
	'NIAGARA W   ';
	'NIAGARA E   ';
	'HUNTLEY     ';
	'HUNTLEY     ';
	'GARDENVILLE ';
	'GARDENVILLE ';
	'DUNKIRK     ';
	'DUNKIRK     ';
	'STOLLE RD   ';
	'MEYER       ';
	'MEYER       ';
	'GESONIDGE   ';
	'WATERCURE   ';
	'WRHL        ';
	'HILLSIDE    ';
	'BINGHAMTON  ';
	'BINGHAMTON  ';
	'BINGHAMTON  ';
	'LAPEER      ';
	'PLEASANT VLY';
	'MILLWOOD    ';
	'RAMAPO      ';
	'RAMAPO      ';
	'BUCHANAN    ';
	'CE UG       ';
	'RAV A-3     ';
	'NORTHPORT   ';
	'GOETHALS    ';
	'AK-3        ';
	'KNICKERBOCKER';
	'WOOD STREET';
	'EAST GARDEN CITY';
};
